31

C	76.020	71.140	51.610
H	75.620	70.360	50.970
C	77.410	71.210	51.890
H	78.190	70.480	51.680
C	77.810	72.350	52.630
Cl	79.520	72.490	52.940
C	76.940	73.360	53.010
H	77.240	74.330	53.420
N	75.670	73.280	52.670
C	75.170	72.150	52.080
N	73.790	72.100	51.840
H	73.380	71.170	51.910
C	73.010	73.080	51.260
O	73.460	74.260	51.060
C	71.520	72.760	51.170
H	71.340	71.680	51.190
C	70.710	73.420	49.980
H	70.280	72.620	49.370
H	71.270	73.990	49.230
C	69.610	74.210	50.540
O	68.780	74.840	49.910
C	69.770	74.170	52.010
C	70.820	73.390	52.330
C	71.170	73.210	53.670
H	72.050	72.620	53.910
C	70.320	73.690	54.660
H	70.610	73.390	55.660
C	69.190	74.490	54.380
H	68.540	74.870	55.160
C	68.910	74.730	52.990
H	68.160	75.450	52.680
