31

C	75.790	72.180	50.240
H	75.290	71.310	49.810
C	77.150	72.140	50.590
H	77.800	71.340	50.270
C	77.630	73.260	51.270
Cl	79.340	73.290	51.520
C	76.780	74.250	51.650
H	77.120	75.110	52.240
N	75.480	74.280	51.440
C	74.980	73.240	50.790
N	73.650	73.230	50.440
H	73.140	72.380	50.610
C	72.990	74.260	49.820
O	73.550	75.330	49.670
C	71.610	73.910	49.280
H	71.560	72.860	48.970
C	71.280	74.650	47.900
H	70.880	73.930	47.170
H	72.050	75.310	47.510
C	70.090	75.530	48.300
O	69.420	76.220	47.550
C	69.660	75.260	49.690
C	70.530	74.340	50.220
C	70.390	73.940	51.540
H	71.060	73.210	51.960
C	69.430	74.530	52.340
H	69.290	74.170	53.360
C	68.550	75.500	51.810
H	67.840	76.000	52.460
C	68.680	75.890	50.430
H	68.250	76.800	50.020
