31

C	75.800	71.330	51.560
H	75.330	70.470	51.090
C	77.150	71.270	51.820
H	77.730	70.360	51.740
C	77.710	72.430	52.410
Cl	79.430	72.580	52.730
C	76.850	73.550	52.740
H	77.220	74.500	53.130
N	75.530	73.560	52.520
C	75.040	72.440	51.870
N	73.670	72.520	51.510
H	73.190	71.620	51.540
C	73.060	73.430	50.780
O	73.520	74.490	50.420
C	71.680	73.060	50.270
H	71.520	71.980	50.220
C	71.450	73.610	48.780
H	71.050	72.810	48.150
H	72.270	74.070	48.220
C	70.270	74.550	49.010
O	69.610	75.070	48.130
C	69.730	74.480	50.360
C	70.530	73.640	51.130
C	70.180	73.330	52.490
H	70.780	72.610	53.040
C	69.130	73.990	53.100
H	68.820	73.720	54.100
C	68.360	74.870	52.330
H	67.500	75.190	52.910
C	68.660	75.060	51.010
H	68.030	75.780	50.490
