31

C	18.070	16.761	15.016
H	17.890	15.761	14.626
C	19.370	17.211	15.256
H	20.201	16.511	15.186
C	19.560	18.511	15.676
Cl	21.261	19.071	15.876
C	18.420	19.391	15.756
H	18.490	20.481	15.726
N	17.180	18.961	15.406
C	17.020	17.661	15.116
N	15.650	17.451	14.796
H	15.190	18.211	14.306
C	14.980	16.331	15.316
O	15.530	15.551	16.026
C	13.440	16.351	15.246
H	13.120	16.791	14.296
C	12.860	17.121	16.436
H	12.220	17.831	15.916
H	13.610	17.671	17.026
C	12.130	16.081	17.296
O	11.540	16.401	18.356
C	12.160	14.851	16.556
C	12.900	14.971	15.386
C	13.070	13.861	14.626
H	13.680	13.971	13.736
C	12.520	12.631	15.006
H	12.630	11.771	14.346
C	11.590	12.531	16.056
H	11.080	11.611	16.326
C	11.480	13.681	16.856
H	10.830	13.601	17.726
