31

C	18.370	18.104	15.739
H	18.720	17.364	15.029
C	19.250	19.114	16.209
H	20.288	19.084	15.909
C	18.730	20.094	17.079
Cl	20.010	21.154	17.599
C	17.380	20.024	17.459
H	17.000	20.704	18.219
N	16.530	19.064	16.979
C	16.990	18.154	16.179
N	16.000	17.214	15.809
H	15.490	17.474	14.969
C	15.430	16.194	16.599
O	16.010	15.714	17.559
C	14.040	15.644	16.249
H	13.530	16.344	15.579
C	13.100	15.584	17.519
H	12.350	16.384	17.419
H	13.650	15.764	18.449
C	12.510	14.194	17.379
O	11.520	13.814	18.049
C	13.200	13.414	16.269
C	14.040	14.294	15.619
C	14.790	13.844	14.559
H	15.560	14.504	14.169
C	14.630	12.534	14.109
H	15.310	12.154	13.359
C	13.630	11.684	14.669
H	13.600	10.654	14.339
C	12.970	12.104	15.839
H	12.340	11.384	16.359
