31

C	18.155	17.624	14.939
H	18.265	16.554	15.069
C	19.303	18.474	14.819
H	20.263	17.994	14.999
C	19.143	19.854	14.709
Cl	20.383	20.964	14.949
C	17.865	20.314	14.669
H	17.695	21.384	14.779
N	16.795	19.534	14.759
C	16.945	18.224	14.809
N	15.775	17.494	14.799
H	15.175	17.734	14.019
C	15.405	16.524	15.729
O	15.945	16.444	16.819
C	14.065	15.904	15.419
H	13.555	16.364	14.569
C	12.975	16.344	16.529
H	12.195	16.824	15.939
H	13.365	16.834	17.429
C	12.335	14.994	16.999
O	11.555	14.894	17.949
C	13.055	13.864	16.269
C	14.085	14.334	15.439
C	14.875	13.474	14.629
H	15.645	13.894	13.989
C	14.715	12.094	14.819
H	15.405	11.364	14.399
C	13.825	11.614	15.789
H	13.835	10.554	16.049
C	12.945	12.484	16.459
H	12.205	12.084	17.159
