31

C	18.540	17.078	15.363
H	17.890	17.938	15.243
C	19.590	16.828	14.433
H	19.920	17.578	13.723
C	20.376	15.638	14.713
Cl	21.816	15.328	13.723
C	19.976	14.708	15.683
H	20.606	13.858	15.943
N	18.900	14.898	16.443
C	18.150	16.028	16.193
N	16.900	16.198	16.803
H	16.770	17.038	17.353
C	15.700	15.498	16.593
O	15.750	14.498	15.843
C	14.370	16.138	17.103
H	14.540	17.068	17.663
C	13.490	15.118	17.973
H	13.450	15.668	18.923
H	13.910	14.118	18.163
C	12.120	14.998	17.313
O	11.210	14.318	17.743
C	12.170	15.808	16.063
C	13.380	16.458	15.963
C	13.600	17.398	14.963
H	14.520	17.968	14.873
C	12.640	17.508	13.953
H	12.720	18.158	13.093
C	11.390	16.938	14.123
H	10.610	17.218	13.423
C	11.170	16.018	15.173
H	10.200	15.518	15.253
