31

C	17.987	17.472	15.867
H	17.957	16.412	16.127
C	19.197	18.172	15.997
H	20.147	17.672	16.137
C	19.207	19.532	15.767
Cl	20.707	20.452	15.627
C	17.967	20.142	15.377
H	17.877	21.212	15.177
N	16.787	19.492	15.307
C	16.837	18.192	15.477
N	15.627	17.512	15.347
H	15.157	17.602	14.457
C	15.067	16.802	16.407
O	15.587	16.672	17.527
C	13.697	16.172	16.037
H	13.287	16.592	15.107
C	12.657	16.262	17.187
H	11.827	16.862	16.777
H	13.127	16.582	18.127
C	12.157	14.832	17.447
O	11.307	14.472	18.257
C	12.947	13.942	16.567
C	13.887	14.652	15.787
C	14.597	13.942	14.817
H	15.337	14.402	14.167
C	14.317	12.572	14.517
H	14.867	12.032	13.757
C	13.297	11.852	15.307
H	13.067	10.802	15.127
C	12.707	12.532	16.387
H	12.097	11.962	17.077
