31

C	18.195	16.189	14.499
H	17.325	16.249	13.849
C	19.475	16.159	13.979
H	19.635	16.219	12.909
C	20.495	16.109	14.989
Cl	22.233	16.109	14.559
C	20.165	16.139	16.389
H	21.035	16.329	17.019
N	18.895	16.249	16.809
C	17.945	16.269	15.859
N	16.625	16.569	16.249
H	16.445	17.559	16.309
C	15.655	15.639	16.429
O	15.785	14.459	16.139
C	14.335	16.289	16.999
H	14.515	17.349	17.199
C	13.835	15.579	18.289
H	14.095	16.169	19.189
H	13.985	14.499	18.389
C	12.275	15.549	18.079
O	11.465	15.349	18.899
C	11.995	15.819	16.669
C	13.155	16.159	15.969
C	13.175	16.399	14.619
H	14.095	16.649	14.109
C	11.985	16.249	13.879
H	11.885	16.499	12.829
C	10.705	16.079	14.559
H	9.785	16.079	13.989
C	10.755	15.869	15.959
H	9.805	15.769	16.479
