31

C	76.587	71.160	51.193
H	76.157	70.370	50.573
C	77.967	71.220	51.633
H	78.667	70.510	51.223
C	78.297	72.340	52.453
Cl	79.997	72.600	52.773
C	77.297	73.120	53.013
H	77.577	73.910	53.713
N	76.047	73.070	52.573
C	75.697	72.090	51.733
N	74.357	72.030	51.383
H	73.877	71.210	51.743
C	73.737	73.020	50.633
O	74.377	74.030	50.223
C	72.307	72.680	50.053
H	72.267	71.590	50.073
C	71.897	73.360	48.693
H	71.447	72.590	48.053
H	72.767	73.810	48.203
C	70.847	74.320	48.953
O	70.377	75.040	48.133
C	70.517	74.190	50.424
C	71.287	73.160	51.003
C	71.147	72.830	52.363
H	71.667	71.980	52.803
C	70.207	73.570	53.123
H	70.147	73.530	54.203
C	69.417	74.500	52.553
H	68.617	75.020	53.073
C	69.507	74.800	51.173
H	68.797	75.440	50.653
