31

C	75.028	70.909	50.895
H	74.788	70.089	50.225
C	76.288	71.189	51.325
H	77.158	70.589	51.075
C	76.508	72.359	52.145
Cl	78.098	72.809	52.805
C	75.378	73.149	52.455
H	75.438	73.959	53.175
N	74.128	72.979	51.895
C	74.078	71.939	51.035
N	72.758	71.729	50.575
H	72.458	70.759	50.575
C	71.978	72.689	49.985
O	72.368	73.809	49.795
C	70.548	72.169	49.665
H	70.538	71.079	49.575
C	69.958	72.729	48.395
H	69.428	71.959	47.825
H	70.718	73.179	47.745
C	68.948	73.869	48.945
O	68.378	74.659	48.245
C	68.708	73.519	50.405
C	69.608	72.509	50.805
C	69.758	72.169	52.165
H	70.498	71.439	52.495
C	68.878	72.839	53.065
H	68.888	72.509	54.095
C	67.948	73.879	52.685
H	67.228	74.349	53.355
C	67.878	74.189	51.305
H	67.248	75.059	51.175
