31

C	76.925	71.628	51.838
H	76.525	70.818	51.248
C	78.245	71.658	52.228
H	78.895	70.818	51.978
C	78.785	72.758	52.948
Cl	80.435	72.748	53.568
C	77.895	73.868	53.148
H	78.315	74.798	53.528
N	76.585	73.858	52.808
C	76.155	72.758	52.148
N	74.835	72.738	51.758
H	74.325	71.878	51.908
C	74.005	73.688	51.208
O	74.265	74.828	50.938
C	72.595	73.178	50.818
H	72.545	72.098	51.038
C	72.245	73.498	49.298
H	71.795	72.678	48.728
H	73.025	73.938	48.668
C	71.135	74.458	49.418
O	70.515	74.908	48.548
C	70.635	74.558	50.838
C	71.535	73.958	51.648
C	71.495	74.158	53.048
H	72.265	73.808	53.718
C	70.435	74.898	53.568
H	70.185	75.018	54.618
C	69.425	75.358	52.688
H	68.475	75.718	53.078
C	69.475	75.178	51.318
H	68.695	75.508	50.638
