31

C	75.060	70.275	50.405
H	74.640	69.395	49.935
C	76.440	70.275	50.805
H	77.100	69.415	50.755
C	76.970	71.475	51.275
Cl	78.680	71.485	51.665
C	76.130	72.585	51.445
H	76.450	73.565	51.805
N	74.820	72.575	51.035
C	74.310	71.485	50.515
N	72.910	71.395	50.265
H	72.490	70.555	50.645
C	72.240	72.325	49.495
O	72.830	73.325	48.995
C	70.750	72.005	49.285
H	70.630	70.915	49.305
C	70.180	72.625	47.915
H	69.410	72.015	47.415
H	71.010	72.885	47.255
C	69.490	73.905	48.345
O	69.090	74.835	47.655
C	69.220	73.715	49.805
C	69.900	72.645	50.365
C	69.660	72.195	51.685
H	70.180	71.385	52.185
C	68.680	72.855	52.415
H	68.590	72.475	53.435
C	67.910	73.895	51.865
H	67.070	74.445	52.265
C	68.170	74.315	50.545
H	67.600	75.125	50.115
