31

C	75.800	71.334	51.562
H	75.330	70.474	51.092
C	77.150	71.274	51.822
H	77.730	70.364	51.742
C	77.710	72.434	52.412
Cl	79.430	72.584	52.732
C	76.850	73.554	52.742
H	77.220	74.504	53.132
N	75.530	73.564	52.522
C	75.040	72.444	51.872
N	73.670	72.524	51.512
H	73.190	71.624	51.542
C	73.060	73.434	50.782
O	73.520	74.494	50.422
C	71.680	73.064	50.272
H	71.520	71.984	50.222
C	71.450	73.614	48.782
H	71.050	72.814	48.152
H	72.270	74.074	48.222
C	70.270	74.554	49.012
O	69.610	75.074	48.132
C	69.730	74.484	50.362
C	70.530	73.644	51.132
C	70.180	73.334	52.492
H	70.780	72.614	53.042
C	69.130	73.994	53.102
H	68.820	73.724	54.102
C	68.360	74.874	52.332
H	67.500	75.194	52.912
C	68.660	75.064	51.012
H	68.030	75.784	50.492
