31

C	73.635	70.863	50.135
H	73.395	70.093	49.395
C	74.965	71.193	50.505
H	75.815	70.613	50.155
C	75.125	72.263	51.395
Cl	76.675	72.803	51.955
C	73.975	72.943	51.815
H	74.025	73.783	52.515
N	72.715	72.623	51.435
C	72.595	71.613	50.565
N	71.325	71.413	49.935
H	70.775	70.693	50.385
C	70.735	72.263	49.035
O	71.235	73.383	48.775
C	69.435	71.783	48.415
H	69.305	70.693	48.405
C	69.325	72.213	46.875
H	68.935	71.343	46.335
H	70.285	72.473	46.415
C	68.215	73.283	46.825
O	68.075	74.033	45.855
C	67.545	73.283	48.175
C	68.245	72.493	49.055
C	67.755	72.303	50.335
H	68.165	71.623	51.085
C	66.555	72.963	50.755
H	66.165	72.863	51.765
C	65.925	73.763	49.845
H	65.115	74.393	50.205
C	66.345	73.963	48.545
H	65.725	74.663	47.985
